# generated using pymatgen
data_Zr7Cu10
_symmetry_space_group_name_H-M   Cmce
_cell_length_a   12.68207912
_cell_length_b   9.27732014
_cell_length_c   9.30984501
_cell_angle_alpha   90.00000000
_cell_angle_beta   90.00000000
_cell_angle_gamma   90.00000000
_symmetry_Int_Tables_number   64
_chemical_formula_structural   Zr7Cu10
_chemical_formula_sum   'Zr28 Cu40'
_cell_volume   1095.35640637
_cell_formula_units_Z   4
loop_
 _symmetry_equiv_pos_site_id
 _symmetry_equiv_pos_as_xyz
  1  'x, y, z'
  2  '-x, -y, -z'
  3  '-x+1/2, -y, z+1/2'
  4  'x+1/2, y, -z+1/2'
  5  'x, -y, -z'
  6  '-x, y, z'
  7  '-x+1/2, y, -z+1/2'
  8  'x+1/2, -y, z+1/2'
  9  'x+1/2, y+1/2, z'
  10  '-x+1/2, -y+1/2, -z'
  11  '-x, -y+1/2, z+1/2'
  12  'x, y+1/2, -z+1/2'
  13  'x+1/2, -y+1/2, -z'
  14  '-x+1/2, y+1/2, z'
  15  '-x, y+1/2, -z+1/2'
  16  'x, -y+1/2, z+1/2'
loop_
 _atom_site_type_symbol
 _atom_site_label
 _atom_site_symmetry_multiplicity
 _atom_site_fract_x
 _atom_site_fract_y
 _atom_site_fract_z
 _atom_site_occupancy
  Zr  Zr0  8  0.00000000  0.18992061  0.19320955  1
  Zr  Zr1  8  0.18872011  0.00000000  0.00000000  1
  Zr  Zr2  8  0.25000000  0.23501793  0.25000000  1
  Zr  Zr3  4  0.00000000  0.00000000  0.50000000  1
  Cu  Cu4  16  0.14599322  0.01882862  0.70355697  1
  Cu  Cu5  16  0.14645387  0.20334119  0.49156665  1
  Cu  Cu6  8  0.00000000  0.10632361  0.89737029  1
